#Extended PHREEQC database for use with W2 (coupling)
# all changes and additions are marked with <W2> ...</W2>
SOLUTION_MASTER_SPECIES
#
#element	species	alk	gfw_formula	element_gfw
#
#<W2>
Fe_di		Fe_di+2		0.0	Fe_di		55.847
Fe_tri		Fe_tri+3	0.0	Fe_tri		55.847
Schwefel	Schwefel	0.0	Schwefel	32.064
Sulfat		Sulfat-2	0.0	Sulfat		96.064
Sulfid		SulfidH-	1.0	SulfidH		33.072
Mn_di		Mn_di+2		0.0     Mn_di		54.938
Mn_tri		Mn_tri+3	0.0     Mn_tri		54.938
Doed		Doed		0.0	Doed		3288.2576
Nit		Nit-	        0.0	Nit             62.0067
#</W2>
H		H+	-1.0	H		1.008
H(0)		H2	0.0	H
H(1)		H+	-1.0	0.0
E		e-	0.0	0.0		0.0
O		H2O	0.0	O		16.0
O(0)		O2	0.0	O
O(-2)		H2O	0.0	0.0
Ca		Ca+2	0.0	Ca		40.08
Mg		Mg+2	0.0	Mg		24.312
Na		Na+	0.0	Na		22.9898
K		K+	0.0	K		39.102
Fe		Fe+2	0.0	Fe		55.847
Fe(+2)		Fe+2	0.0	Fe
Fe(+3)		Fe+3	-2.0	Fe
Mn		Mn+2	0.0	Mn		54.938
Mn(+2)		Mn+2	0.0	Mn
Mn(+3)		Mn+3	0.0	Mn
Al		Al+3	0.0	Al		26.9815
Ba		Ba+2	0.0	Ba		137.34
Sr		Sr+2	0.0	Sr		87.62
Si		H4SiO4	0.0	SiO2		28.0843
Cl		Cl-	0.0	Cl		35.453
C		CO3-2	2.0	HCO3		12.0111
C(+4)		CO3-2	2.0	HCO3
C(-4)		CH4	0.0	CH4
Alkalinity	CO3-2	1.0	Ca0.5(CO3)0.5	50.05
#S		SO4-2	0.0	SO4		32.064
#S(6)		SO4-2	0.0	SO4
#S(-2)		HS-	1.0	S
N		NO3-	0.0	N		14.0067
N(+5)		NO3-	0.0	N
N(+3)		NO2-	0.0	N
N(0)		N2	0.0	N
Amm		AmmH+	0.0	Amm		14.0067
B		H3BO3	0.0	B		10.81
P		PO4-3	2.0	P		30.9738
F		F-	0.0	F		18.9984
Li		Li+	0.0	Li		6.939
Br		Br-	0.0	Br		79.904
Zn		Zn+2	0.0	Zn		65.37
Cd		Cd+2	0.0	Cd		112.4
Pb		Pb+2	0.0	Pb		207.19
Cu		Cu+2	0.0	Cu		63.546
Cu(+2)		Cu+2	0.0	Cu
Cu(+1)		Cu+1	0.0	Cu
As              H3AsO4  -1.0    74.9216         74.9216
As(+3)          H3AsO3   0.0    74.9216
As(+5)          H3AsO4  -1.0    74.9216
# <from minteq.v4.dat>
Hg		Hg(OH)2		0.0	Hg	200.59
Hg(0)           Hg		0.0	Hg
Hg(1)		Hg2+2		0.0	Hg
Hg(2)		Hg(OH)2		0.0	Hg
Ag		Ag+		0.0	Ag	107.868
Co		Co+3		-1.0	Co	58.9332
Co(2)		Co+2		0.0	Co
Co(3)		Co+3		-1.0	Co
Cr		CrO4-2		1.0	Cr	51.996
Cr(2)		Cr+2		0.0	Cr
Cr(3)		Cr(OH)2+	0.0	Cr
Cr(6)		CrO4-2		1.0	Cr
Cu		Cu+2		0.0	Cu	63.546
Cu(1)		Cu+		0.0	Cu
Cu(2)		Cu+2		0.0	Cu
Mo		MoO4-2		0.0	Mo	95.94
Ni		Ni+2		0.0	Ni	58.69
Se		SeO4-2		0.0	Se	78.96
Se(-2)		HSe-		0.0	Se
Se(4)		HSeO3-		0.0	Se
Se(6)		SeO4-2		0.0	Se
Tl		Tl(OH)3		0.0	Tl	204.383
Tl(1)		Tl+		0.0	Tl
Tl(3)		Tl(OH)3		0.0	Tl
U		UO2+2		0.0	U	238.029
U(3)		U+3		0.0	U
U(4)		U+4		-4.0	U
U(5)		UO2+		0.0	U
U(6)		UO2+2		0.0	U
# </from minteq.v4.dat>

SOLUTION_SPECIES

#<W2>
H2O + 0.01e- = H2O-0.01
	log_k	-9.0
H3AsO4 = H3AsO4
        log_k   0
        delta_h 0       kcal
H3AsO4 + 2e- + 2H+ = H3AsO3 + H2O
        log_k   19.444
        delta_h -30.015 kcal
H3AsO3 = H2AsO3- + H+
        log_k   -9.228
        delta_h 6.56    kcal
H3AsO3 = HAsO3-2 + 2H+
        log_k   -21.33
        delta_h 14.199  kcal
H3AsO3 = AsO3-3 + 3H+
        log_k   -34.744
        delta_h 20.25   kcal
H3AsO3 + H+ = H4AsO3+
        log_k   -0.305
        delta_h 0       kcal
H3AsO4 = H2AsO4- + H+
        log_k   -2.243
        delta_h -1.69   kcal
H3AsO4 = HAsO4-2 + 2H+
        log_k   -9.001
        delta_h -0.92   kcal
H3AsO4 = AsO4-3 + 3H+
        log_k   -20.597
        delta_h 3.43    kcal
Fe_di+2 = Fe_di+2
        log_k   0.0
Fe_tri+3 = Fe_tri+3
        log_k   0.0
#
# Fe+2 species
#
Fe_di+2 + H2O = Fe_diOH+ + H+
        log_k   -9.5
        delta_h 13.20   kcal
#
#... and also other Fe+2 species
#
Fe_di+2 + Cl- = Fe_diCl+
        log_k   0.14
Fe_di+2 + CO3-2 = Fe_diCO3
        log_k   4.38
Fe_di+2 + HCO3- = Fe_diHCO3+
        log_k   2.0
Fe_di+2 + Sulfat-2 = Fe_diSulfat
	log_k	2.25
	delta_h 3.230	kcal
Fe+2 + Sulfat-2 = FeSulfat
	log_k	2.25
	delta_h 3.230	kcal
Fe_di+2 + SulfatH- = Fe_diSulfatH+
        log_k   1.08
Fe+2 + SulfatH- = FeSulfatH+
        log_k   1.08
Fe_di+2 + 2SulfidH- = Fe_di(SulfidH)2
        log_k   8.95
Fe+2 + 2SulfidH- = Fe(SulfidH)2
        log_k   8.95
Fe_di+2 + 3SulfidH- = Fe_di(SulfidH)3-
        log_k   10.987
Fe+2 + 3SulfidH- = Fe(SulfidH)3-
        log_k   10.987
Fe_di+2 + HPO4-2 = Fe_diHPO4
        log_k   3.6
Fe_di+2 + H2PO4- = Fe_diH2PO4+
        log_k   2.7
Fe_di+2 + F- = Fe_diF+
        log_k   1.0


# Fe+3 species
#
Fe_tri+3 + H2O = Fe_triOH+2 + H+
        log_k   -2.19
        delta_h 10.4    kcal
#
#... and also other Fe+3 species
#
Fe_tri+3 + 2 H2O = Fe_tri(OH)2+ + 2 H+
        log_k   -5.67
        delta_h 17.1    kcal
Fe_tri+3 + 3 H2O = Fe_tri(OH)3 + 3 H+
        log_k   -12.56
        delta_h 24.8    kcal
Fe_tri+3 + 4 H2O = Fe_tri(OH)4- + 4 H+
        log_k   -21.6
        delta_h 31.9    kcal
2 Fe_tri+3 + 2 H2O = Fe_tri2(OH)2+4 + 2 H+
        log_k   -2.95
        delta_h 13.5    kcal
3 Fe_tri+3 + 4 H2O = Fe_tri3(OH)4+5 + 4 H+
        log_k   -6.3
        delta_h 14.3    kcal
Fe_tri+3 + Cl- = Fe_triCl+2
        log_k   1.48
        delta_h 5.6     kcal
Fe_tri+3 + 2 Cl- = Fe_triCl2+
        log_k   2.13
Fe_tri+3 + 3 Cl- = Fe_triCl3
        log_k   1.13
Fe_tri+3 + Sulfat-2 = Fe_triSulfat+
        log_k   4.04
        delta_h 3.91    kcal
Fe+3 + Sulfat-2 = FeSulfat+
        log_k   4.04
        delta_h 3.91    kcal
Fe_tri+3 + SulfatH- = Fe_triSulfatH+2
        log_k   2.48
Fe+3 + SulfatH- = FeSulfatH+2
        log_k   2.48
Fe_tri+3 + 2 Sulfat-2 = Fe_tri(Sulfat)2-
        log_k   5.38
        delta_h 4.60    kcal
Fe+3 + 2 Sulfat-2 = Fe(Sulfat)2-
        log_k   5.38
        delta_h 4.60    kcal
Fe_tri+3 + HPO4-2 = Fe_triHPO4+
        log_k   5.43
        delta_h 5.76    kcal
Fe_tri+3 + H2PO4- = Fe_triH2PO4+2
        log_k   5.43
Fe_tri+3 + F- = Fe_triF+2
        log_k   6.2
        delta_h 2.7     kcal
Fe_tri+3 + 2 F- = Fe_triF2+
        log_k   10.8
        delta_h 4.8     kcal
Fe_tri+3 + 3 F- = Fe_triF3
        log_k   14.0
        delta_h 5.4     kcal


Doed = Doed
		log_k 0.0

Schwefel = Schwefel
		log_k 0.0
Sulfat-2 = Sulfat-2
		log_k   0.0
		-gamma	5.0	-0.04
SulfidH- = SulfidH-
		log_k  0.0

Sulfat-2 + H+ = SulfatH-
	log_k	1.988
	delta_h 3.85	kcal
	-analytic	-56.889	0.006473	2307.9	19.8858	0.0

#implemented as kinetic reaction
#Sulfat-2 + 9 H+ + 8 e- = SulfidH- + 4 H2O
#	log_k	33.65
#	delta_h -60.140 kcal
#	-gamma	3.5	0.0

SulfidH- = Sulfid-2 + H+
	log_k	-12.918
	delta_h 12.1	kcal
	-gamma	5.0	0.0

SulfidH- + H+ = H2Sulfid
	log_k	6.994
	delta_h -5.30	kcal

AmmH+ + Sulfat-2 = AmmSulfatH-
	log_k	1.11

Ca+2 + Sulfat-2 = CaSulfat
	log_k	2.3
	delta_h 1.650	kcal

Mg+2 + Sulfat-2 = MgSulfat
	log_k	2.37
	delta_h 4.550	kcal

Na+ + Sulfat-2 = NaSulfat-
	log_k	0.7
	delta_h 1.120	kcal

K+ + Sulfat-2 = KSulfat-
	log_k	0.85
	delta_h 2.250	kcal

Mn_di+2 + Sulfat-2 = Mn_diSulfat
	log_k	2.25
	delta_h 3.370	kcal

Mn+2 + Sulfat-2 = MnSulfat
	log_k	2.25
	delta_h 3.370	kcal

Al+3 + Sulfat-2 = AlSulfat+
	log_k	3.5
	delta_h 2.29 kcal

Al+3 + 2Sulfat-2 = Al(Sulfat)2-
	log_k	5.0
	delta_h 3.11 kcal

Al+3 + SulfatH- = AlSulfatH+2
	log_k	0.46

Ba+2 + Sulfat-2 = BaSulfat
	log_k	2.7

Sr+2 + Sulfat-2 = SrSulfat
	log_k	2.29
	delta_h 2.08	kcal

Li+ + Sulfat-2 = LiSulfat-
	log_k	0.64

Cu+2 + Sulfat-2 = CuSulfat
	log_k	2.31
	delta_h 1.220	kcal

Zn+2 + Sulfat-2 = ZnSulfat
	log_k	2.37
	delta_h 1.36 kcal

Zn+2 + 2Sulfat-2 = Zn(Sulfat)2-2
	log_k	3.28

Cd+2 + Sulfat-2 = CdSulfat
	log_k	2.46
	delta_h 1.08 kcal

Cd+2 + 2Sulfat-2 = Cd(Sulfat)2-2
	log_k	3.5


Pb+2 + Sulfat-2 = PbSulfat
	log_k	2.75

Pb+2 + 2 Sulfat-2 = Pb(Sulfat)2-2
	log_k	3.47

Mn_di+2 = Mn_di+2
	log_k	0.0
	-gamma	6.0	0.0

Mn_tri+3 = Mn_tri+3
	log_k	0.0


Mn_di+2 + H2O = Mn_diOH+ + H+
	log_k	-10.59
	delta_h 14.40	kcal

Mn_di+2 + Cl- = Mn_diCl+
	log_k	0.61

Mn_di+2 + 2 Cl- = Mn_diCl2
	log_k	0.25

Mn_di+2 + 3 Cl- = Mn_diCl3-
	log_k	-0.31

Mn_di+2 + CO3-2 = Mn_diCO3
	log_k	4.9

Mn_di+2 + HCO3- = Mn_diHCO3+
	log_k	1.95

Mn_di+2 + Sulfat-2 = Mn_diSulfat
	log_k	2.25
	delta_h 3.370	kcal

Mn_di+2 + 2 NO3- = Mn_di(NO3)2
	log_k	0.6
	delta_h -0.396	kcal
#<W2>
Mn_di+2 + 2 Nit- = Mn_di(Nit)2
	log_k	0.6
	delta_h -0.396	kcal
#</W2>
Mn_di+2 + F- = Mn_diF+
	log_k	0.84

# implemented as kinetic reaction
#Mn_di+2 = Mn_tri+3 + e-
#	log_k	-25.51
#	delta_h 25.80	kcal

#</W2>

# <from minteq.v4.dat>

Ag+ = Ag+
	log_k 0
Co+3 = Co+3
	log_k 0
CrO4-2 = CrO4-2
	log_k 0
Cu+2 = Cu+2
Hg(OH)2 = Hg(OH)2
	log_k 0
MoO4-2 = MoO4-2
	log_k 0
Ni+2 = Ni+2
	log_k 0
SeO4-2 = SeO4-2
	log_k 0
Tl(OH)3 = Tl(OH)3
	log_k 0
UO2+2 = UO2+2
	log_k 0
# </from minteq.v4.dat>


H+ = H+
	log_k	0.0
	-gamma	9.0	0.0



e- = e-
	log_k	0.0

H2O = H2O
	log_k	0.0

Ca+2 = Ca+2
	log_k	0.0
	-gamma	5.0	0.1650

Mg+2 = Mg+2
	log_k	0.0
	-gamma	5.5	0.20

Na+ = Na+
	log_k	0.0
	-gamma	4.0	0.075

K+ = K+
	log_k	0.0
	-gamma	3.5	0.015

Fe+2 = Fe+2
	log_k	0.0
	-gamma	6.0	0.0

Mn+2 = Mn+2
	log_k	0.0
	-gamma	6.0	0.0

Al+3 = Al+3
	log_k	0.0
	-gamma	9.0	0.0

Ba+2 = Ba+2
	log_k	0.0
	-gamma	5.0	0.0

Sr+2 = Sr+2
	log_k	0.0
	-gamma	5.260	0.121

H4SiO4 = H4SiO4
	log_k	0.0

Cl- = Cl-
	log_k	0.0
	-gamma	3.5	0.015

CO3-2 = CO3-2
	log_k	0.0
	-gamma	5.4	0.0

#SO4-2 = SO4-2#
#	log_k	0.0
#	-gamma	5.0	-0.04

NO3- = NO3-
	log_k	0.0
	-gamma	3.0	0.0
#<W2>
Nit- = Nit-
	log_k	0.0
	-gamma	3.0	0.0
#</W2>

AmmH+ = AmmH+
	log_k	0.0
	-gamma	2.5	0.0

H3BO3 = H3BO3
	log_k	0.0

PO4-3 = PO4-3
	log_k	0.0
	-gamma	4.0	0.0

F- = F-
	log_k	0.0
	-gamma	3.5	0.0

Li+ = Li+
	log_k	0.0
	-gamma	6.0	0.0

Br- = Br-
	log_k	0.0
	-gamma	3.0	0.0

Zn+2 = Zn+2
	log_k	0.0
	-gamma	5.0	0.0

Cd+2 = Cd+2
	log_k	0.0

Pb+2 = Pb+2
	log_k	0.0

Cu+2 = Cu+2
	log_k	0.0
	-gamma	6.0	0.0

H2O = OH- + H+
	log_k	-14.0
	delta_h 13.362	kcal
	-analytic	-283.971	-0.05069842	13323.0	102.24447	-1119669.0
	-gamma	3.5	0.0

2 H2O = O2 + 4 H+ + 4 e-
	log_k	-86.08
	delta_h 134.79 kcal

2 H+ + 2 e- = H2
	log_k	-3.15
	delta_h -1.759

CO3-2 + H+ = HCO3-
	log_k	10.329
	delta_h -3.561	kcal
	-analytic	107.8871	0.03252849	-5151.79	-38.92561	563713.9
	-gamma	5.4	0.0

CO3-2 + 2 H+ = CO2 + H2O
	log_k	16.681
	delta_h -5.738	kcal
	-analytic	464.1965	0.09344813	-26986.16	-165.75951	2248628.9

CO3-2 + 10 H+ + 8 e- = CH4 + 3 H2O
	log_k	41.071
	delta_h -61.039 kcal

#SO4-2 + H+ = HSO4-
#	log_k	1.988
#	delta_h 3.85	kcal
#	-analytic	-56.889	0.006473	2307.9	19.8858	0.0

#HS- = S-2 + H+
#	log_k	-12.918
#	delta_h 12.1	kcal
#	-gamma	5.0	0.0

#SO4-2 + 9 H+ + 8 e- = HS- + 4 H2O
#	log_k	33.65
#	delta_h -60.140 kcal
#	-gamma	3.5	0.0

#HS- + H+ = H2S
#	log_k	6.994
#	delta_h -5.30	kcal

NO3- + 2 H+ + 2 e- = NO2- + H2O
	log_k	28.570
	delta_h -43.760 kcal
	-gamma	3.0	0.0

2 NO3- + 12 H+ + 10 e- = N2 + 6 H2O
	log_k	207.08
	delta_h -312.130	kcal

AmmH+ = Amm + H+
	log_k	-9.252
	delta_h 12.48	kcal

#NO3- + 10 H+ + 8 e- = AmmH+ + 3 H2O
#	log_k	119.077
#	delta_h -187.055	kcal
#	-gamma	2.5	0.0

#AmmH+ + SO4-2 = AmmHSO4-
#	log_k	1.11

H3BO3 = H2BO3- + H+
	log_k	-9.24
	delta_h 3.224	kcal

H3BO3 + F- = BF(OH)3-
	log_k	-0.4
	delta_h 1.850	kcal

H3BO3 + 2 F- + H+ = BF2(OH)2- + H2O
	log_k	7.63
	delta_h 1.618	kcal

H3BO3 + 2 H+ + 3 F- = BF3OH- + 2 H2O
	log_k	13.67
	delta_h -1.614	kcal

H3BO3 + 3 H+ + 4 F- = BF4- + 3 H2O
	log_k	20.28
	delta_h -1.846	kcal

PO4-3 + H+ = HPO4-2
	log_k	12.346
	delta_h -3.530	kcal
	-gamma	4.0	0.0

PO4-3 + 2 H+ = H2PO4-
	log_k	19.553
	delta_h -4.520	kcal
	-gamma	4.5	0.0

H+ + F- = HF
	log_k	3.18
	delta_h 3.18	kcal
	-analytic	-2.033	0.012645	429.01

H+ + 2 F- = HF2-
	log_k	3.76
	delta_h 4.550	kcal

Ca+2 + H2O = CaOH+ + H+
	log_k	-12.78

Ca+2 + CO3-2 = CaCO3
	log_k	3.224
	delta_h 3.545	kcal
	-analytic	-1228.732	-0.299440	35512.75	485.818

Ca+2 + CO3-2 + H+ = CaHCO3+
	log_k	11.435
	delta_h -0.871	kcal
	-analytic	1317.0071	0.34546894	-39916.84	-517.70761	563713.9
	-gamma	5.4	0.0

#Ca+2 + SO4-2 = CaSO4
#	log_k	2.3
#	delta_h 1.650	kcal

Ca+2 + PO4-3 = CaPO4-
	log_k	6.459
	delta_h 3.10	kcal

Ca+2 + HPO4-2 = CaHPO4
	log_k	2.739
	delta_h 3.3 kcal

Ca+2 + H2PO4- = CaH2PO4+
	log_k	1.408
	delta_h 3.4 kcal

Ca+2 + F- = CaF+
	log_k	0.94
	delta_h 4.120	kcal

Mg+2 + H2O = MgOH+ + H+
	log_k	-11.44
	delta_h 15.952 kcal

Mg+2 + CO3-2 = MgCO3
	log_k	2.98
	delta_h 2.713	kcal
	-analytic	0.9910	0.00667

Mg+2 + H+ + CO3-2 = MgHCO3+
	log_k	11.399
	delta_h -2.771	kcal
	-analytic	48.6721	0.03252849	-2614.335	-18.00263	563713.9

#Mg+2 + SO4-2 = MgSO4
#	log_k	2.37
#	delta_h 4.550	kcal

Mg+2 + PO4-3 = MgPO4-
	log_k	6.589
	delta_h 3.10	kcal

Mg+2 + HPO4-2 = MgHPO4
	log_k	2.87
	delta_h 3.3 kcal

Mg+2 + H2PO4- = MgH2PO4+
	log_k	1.513
	delta_h 3.4 kcal

Mg+2 + F- = MgF+
	log_k	1.82
	delta_h 3.20	kcal

Na+ + H2O = NaOH + H+
	log_k	-14.18

Na+ + CO3-2 = NaCO3-
	log_k	1.27
	delta_h 8.910	kcal

Na+ + HCO3- = NaHCO3
	log_k	-0.25

#Na+ + SO4-2 = NaSO4-
#	log_k	0.7
#	delta_h 1.120	kcal

Na+ + HPO4-2 = NaHPO4-
	log_k	0.29

Na+ + F- = NaF
	log_k	-0.24

K+ + H2O = KOH + H+
	log_k	-14.46

#K+ + SO4-2 = KSO4-
#	log_k	0.85
#	delta_h 2.250	kcal

K+ + HPO4-2 = KHPO4-
	log_k	0.29

Fe+2 + H2O = FeOH+ + H+
	log_k	-9.5
	delta_h 13.20	kcal

Fe+2 + Cl- = FeCl+
	log_k	0.14

Fe+2 + CO3-2 = FeCO3
	log_k	4.38

Fe+2 + HCO3- = FeHCO3+
	log_k	2.0

#Fe+2 + SO4-2 = FeSO4
#	log_k	2.25
#	delta_h 3.230	kcal

#Fe+2 + HSO4- = FeHSO4+
#	log_k	1.08

#Fe+2 + 2HS- = Fe(HS)2
#	log_k	8.95

#Fe+2 + 3HS- = Fe(HS)3-
#	log_k	10.987

Fe+2 + HPO4-2 = FeHPO4
	log_k	3.6

Fe+2 + H2PO4- = FeH2PO4+
	log_k	2.7

Fe+2 + F- = FeF+
	log_k	1.0

Fe+2 = Fe+3 + e-
	log_k	-13.02
	delta_h 9.680	kcal
	-gamma	9.0	0.0

Fe+3 + H2O = FeOH+2 + H+
	log_k	-2.19
	delta_h 10.4	kcal

Fe+3 + 2 H2O = Fe(OH)2+ + 2 H+
	log_k	-5.67
	delta_h 17.1	kcal

Fe+3 + 3 H2O = Fe(OH)3 + 3 H+
	log_k  -12.56
	delta_h 24.8	kcal

Fe+3 + 4 H2O = Fe(OH)4- + 4 H+
	log_k	-21.6
	delta_h 31.9	kcal

2 Fe+3 + 2 H2O = Fe2(OH)2+4 + 2 H+
	log_k	-2.95
	delta_h 13.5	kcal

3 Fe+3 + 4 H2O = Fe3(OH)4+5 + 4 H+
	log_k	-6.3
	delta_h 14.3	kcal

Fe+3 + Cl- = FeCl+2
	log_k	1.48
	delta_h 5.6	kcal

Fe+3 + 2 Cl- = FeCl2+
	log_k	2.13

Fe+3 + 3 Cl- = FeCl3
	log_k	1.13

#Fe+3 + SO4-2 = FeSO4+
#	log_k	4.04
#	delta_h 3.91	kcal

#Fe+3 + HSO4- = FeHSO4+2
#	log_k	2.48

#Fe+3 + 2 SO4-2 = Fe(SO4)2-
#	log_k	5.38
#	delta_h 4.60	kcal

Fe+3 + HPO4-2 = FeHPO4+
	log_k	5.43
	delta_h 5.76	kcal

Fe+3 + H2PO4- = FeH2PO4+2
	log_k	5.43

Fe+3 + F- = FeF+2
	log_k	6.2
	delta_h 2.7	kcal

Fe+3 + 2 F- = FeF2+
	log_k	10.8
	delta_h 4.8	kcal

Fe+3 + 3 F- = FeF3
	log_k	14.0
	delta_h 5.4	kcal

Mn+2 + H2O = MnOH+ + H+
	log_k	-10.59
	delta_h 14.40	kcal

Mn+2 + Cl- = MnCl+
	log_k	0.61

Mn+2 + 2 Cl- = MnCl2
	log_k	0.25

Mn+2 + 3 Cl- = MnCl3-
	log_k	-0.31

Mn+2 + CO3-2 = MnCO3
	log_k	4.9

Mn+2 + HCO3- = MnHCO3+
	log_k	1.95

#Mn+2 + SO4-2 = MnSO4
#	log_k	2.25
#	delta_h 3.370	kcal

Mn+2 + 2 NO3- = Mn(NO3)2
	log_k	0.6
	delta_h -0.396	kcal
#<W2>
Mn+2 + 2 Nit- = Mn(Nit)2
	log_k	0.6
	delta_h -0.396	kcal
#</W2>

Mn+2 + F- = MnF+
	log_k	0.84

Mn+2 = Mn+3 + e-
	log_k	-25.51
	delta_h 25.80	kcal

Al+3 + H2O = AlOH+2 + H+
	log_k	-5.0
	delta_h 11.49	kcal
	-analytic	-38.253	0.0	-656.27	14.327

Al+3 + 2 H2O = Al(OH)2+ + 2 H+
	log_k	-10.1
	delta_h 26.90	kcal
	-analytic	88.50	0.0	-9391.6	-27.121

Al+3 + 3 H2O = Al(OH)3 + 3 H+
	log_k	-16.9
	delta_h 39.89	kcal
	-analytic	226.374	0.0	-18247.8	-73.597

Al+3 + 4 H2O = Al(OH)4- + 4 H+
	log_k	-22.7
	delta_h 42.30	kcal
	-analytic	51.578	0.0	-11168.9	-14.865

#Al+3 + SO4-2 = AlSO4+
#	log_k	3.5
#	delta_h 2.29 kcal

#Al+3 + 2SO4-2 = Al(SO4)2-
#	log_k	5.0
#	delta_h 3.11 kcal

#Al+3 + HSO4- = AlHSO4+2
#	log_k	0.46

Al+3 + F- = AlF+2
	log_k	7.0
	delta_h 1.060	kcal

Al+3 + 2 F- = AlF2+
	log_k	12.7
	delta_h 1.980	kcal

Al+3 + 3 F- = AlF3
	log_k	16.8
	delta_h 2.160	kcal

Al+3 + 4 F- = AlF4-
	log_k	19.4
	delta_h 2.20	kcal

Al+3 + 5 F- = AlF5-2
	log_k	20.6
	delta_h 1.840	kcal

Al+3 + 6 F- = AlF6-3
	log_k	20.6
	delta_h -1.670	kcal

H4SiO4 = H3SiO4- + H+
	log_k	-9.83
	delta_h 6.12	kcal
	-analytic	-302.3724	-0.050698	15669.69	108.18466	-1119669.0

H4SiO4 = H2SiO4-2 + 2 H+
	log_k	-23.0
	delta_h 17.6	kcal
	-analytic	-294.0184	-0.072650	11204.49	108.18466	-1119669.0

H4SiO4 + 4 H+ + 6 F- = SiF6-2 + 4 H2O
	log_k	30.18
	delta_h -16.260	kcal

Ba+2 + H2O = BaOH+ + H+
	log_k	-13.47

Ba+2 + CO3-2 = BaCO3
	log_k	2.71
	delta_h 3.55	kcal
	-analytic	0.113	0.008721

Ba+2 + HCO3- = BaHCO3+
	log_k	0.982
	delta_h 5.56 kcal
	-analytical	-3.0938	0.013669	0.0	0.0	0.0

#Ba+2 + SO4-2 = BaSO4
#	log_k	2.7

Sr+2 + H2O = SrOH+ + H+
	log_k	-13.29
	-gamma	5.0	0.0

Sr+2 + CO3-2 + H+ = SrHCO3+
	log_k	11.509
	delta_h 2.489	kcal
	-analytic	104.6391	0.04739549	-5151.79	-38.92561	563713.9
	-gamma	5.4	0.0

Sr+2 + CO3-2 = SrCO3
	log_k	2.81
	delta_h 5.22	kcal
	-analytic	-1.019	0.012826

#Sr+2 + SO4-2 = SrSO4
#	log_k	2.29
#	delta_h 2.08	kcal

Li+ + H2O = LiOH + H+
	log_k	-13.64

#Li+ + SO4-2 = LiSO4-
#	log_k	0.64

Cu+2 + e- = Cu+
	log_k	2.72
	delta_h 1.65	kcal
	-gamma	2.5	0.0

Cu+2 + H2O = CuOH+ + H+
	log_k	-8.0
	-gamma	4.0	0.0

Cu+2 + 2 H2O = Cu(OH)2 + 2 H+
	log_k	-13.68

Cu+2 + 3 H2O = Cu(OH)3- + 3 H+
	log_k	-26.9

Cu+2 + 4 H2O = Cu(OH)4-2 + 4 H+
	log_k	-39.6

#Cu+2 + SO4-2 = CuSO4
#	log_k	2.31
#	delta_h 1.220	kcal

Zn+2 + H2O = ZnOH+ + H+
	log_k	-8.96
	delta_h 13.4 kcal

Zn+2 + 2 H2O = Zn(OH)2 + 2 H+
	log_k	-16.9

Zn+2 + 3 H2O = Zn(OH)3- + 3 H+
	log_k	-28.4

Zn+2 + 4 H2O = Zn(OH)4-2 + 4 H+
	log_k	-41.2

Zn+2 + Cl- = ZnCl+
	log_k	0.43
	delta_h 7.79 kcal

Zn+2 + 2 Cl- = ZnCl2
	log_k	0.45
	delta_h 8.5 kcal

Zn+2 + 3Cl- = ZnCl3-
	log_k	0.5
	delta_h 9.56 kcal

Zn+2 + 4Cl- = ZnCl4-2
	log_k	0.2
	delta_h 10.96 kcal

Zn+2 + CO3-2 = ZnCO3
	log_k	5.3

Zn+2 + 2CO3-2 = Zn(CO3)2-2
	log_k	9.63

Zn+2 + HCO3- = ZnHCO3+
	log_k	2.1

#Zn+2 + SO4-2 = ZnSO4
#	log_k	2.37
#	delta_h 1.36 kcal

#Zn+2 + 2SO4-2 = Zn(SO4)2-2
#	log_k	3.28

Cd+2 + H2O = CdOH+ + H+
	log_k	-10.08
	delta_h 13.1 kcal

Cd+2 + 2 H2O = Cd(OH)2 + 2 H+
	log_k	-20.35

Cd+2 + 3 H2O = Cd(OH)3- + 3 H+
	log_k	-33.3

Cd+2 + 4 H2O = Cd(OH)4-2 + 4 H+
	log_k	-47.35

Cd+2 + Cl- = CdCl+
	log_k	1.98
	delta_h 0.59 kcal

Cd+2 + 2 Cl- = CdCl2
	log_k	2.6
	delta_h 1.24 kcal

Cd+2 + 3 Cl- = CdCl3-
	log_k	2.4
	delta_h 3.9 kcal

Cd+2 + CO3-2 = CdCO3
	log_k	2.9

Cd+2 + 2CO3-2 = Cd(CO3)2-2
	log_k	6.4

Cd+2 + HCO3- = CdHCO3+
	log_k	1.5

#Cd+2 + SO4-2 = CdSO4
#	log_k	2.46
#	delta_h 1.08 kcal

#Cd+2 + 2SO4-2 = Cd(SO4)2-2
#	log_k	3.5

Pb+2 + H2O = PbOH+ + H+
	log_k	-7.71

Pb+2 + 2 H2O = Pb(OH)2 + 2 H+
	log_k	-17.12

Pb+2 + 3 H2O = Pb(OH)3- + 3 H+
	log_k	-28.06

Pb+2 + 4 H2O = Pb(OH)4-2 + 4 H+
	log_k	-39.7

2 Pb+2 + H2O = Pb2OH+3 + H+
	log_k	-6.36

Pb+2 + Cl- = PbCl+
	log_k	1.6
	delta_h 4.38 kcal

Pb+2 + 2 Cl- = PbCl2
	log_k	1.8
	delta_h 1.08 kcal

Pb+2 + 3 Cl- = PbCl3-
	log_k	1.7
	delta_h 2.17 kcal

Pb+2 + 4 Cl- = PbCl4-2
	log_k	1.38
	delta_h 3.53 kcal

Pb+2 + CO3-2 = PbCO3
	log_k	7.24

Pb+2 + 2 CO3-2 = Pb(CO3)2-2
	log_k	10.64

Pb+2 + HCO3- = PbHCO3+
	log_k	2.9

#Pb+2 + SO4-2 = PbSO4
#	log_k	2.75

#Pb+2 + 2 SO4-2 = Pb(SO4)2-2
#	log_k	3.47

Pb+2 + NO3- = PbNO3+
	log_k	1.17
#<W2>
Pb+2 + Nit- = PbNit+
	log_k	1.17
#</W2>

# <from minteq.v4.dat>
Ag+ + H2O = AgOH + H+
	log_k	-11.997
	delta_h	0	kJ
	-gamma	0	0
		#                  Id:	203300
		#        log K source:	NIST46.3
		#      Delta H source:	MTQ3.11
		#T and ionic strength:	 0.00 25.0
Ag+ + 2H2O = Ag(OH)2- + 2H+
	log_k	-24.004
	delta_h	0	kJ
	-gamma	0	0
		#                  Id:	203301
		#        log K source:	NIST46.3
		#      Delta H source:	MTQ3.11
		#T and ionic strength:	 0.00 25.0
Co+3 + e- = Co+2
	log_k	32.4
	delta_h	0	kJ
	-gamma	0	0
		#                  Id:	2002010
		#        log K source:	Bard85
		#      Delta H source:	MTQ3.11
		#T and ionic strength:
Cr(OH)2+ + 2H+ + e- = Cr+2 + 2H2O
	log_k	2.947
	delta_h	6.36	kJ
	-gamma	0	0
		#                  Id:	2102110
		#        log K source:	MTQ3.11
		#      Delta H source:	MTQ3.11
		#T and ionic strength:
CrO4-2 + 6H+ + 3e- = Cr(OH)2+ + 2H2O
	log_k	67.376
	delta_h	-103	kJ
	-gamma	0	0
		#                  Id:	2112120
		#        log K source:	MTQ3.11
		#      Delta H source:	MTQ3.11
		#T and ionic strength:
0.5Hg2+2 + e- = Hg
	log_k	6.5667
	delta_h	-45.735	kJ
	-gamma	0	0
		#                  Id:	3600000
		#        log K source:	NIST2.1.1
		#      Delta H source:	NIST2.1.1
		#T and ionic strength:
2Hg(OH)2 + 4H+ + 2e- = Hg2+2 + 4H2O
	log_k	43.185
	delta_h	-63.59	kJ
	-gamma	0	0
		#                  Id:	3603610
		#        log K source:	Bard85
		#      Delta H source:	MTQ3.11
		#T and ionic strength:
HSe- = Se-2 + H+
	log_k	-15
	delta_h	48.116	kJ
	-gamma	0	0
		#                  Id:	3307601
		#        log K source:	SCD3.02 (1968 DKa)
		#      Delta H source:	MTQ3.11
		#T and ionic strength:	 0.00 25.0
MoO4-2 + H+ = HMoO4-
	log_k	4.2988
	delta_h	20	kJ
	-gamma	0	0
		#                  Id:	3304801
		#        log K source:	NIST46.4
		#      Delta H source:	NIST46.4
		#T and ionic strength:	 0.00 20.0
MoO4-2 + 2H+ = H2MoO4
	log_k	8.1636
	delta_h	-26	kJ
	-gamma	0	0
		#                  Id:	3304802
		#        log K source:	NIST46.4
		#      Delta H source:	NIST46.4
		#T and ionic strength:	 0.00 20.0
7MoO4-2 + 8H+ = Mo7O24-6 + 4H2O
	log_k	52.99
	delta_h	-228	kJ
	-gamma	0	0
		#                  Id:	3304803
		#        log K source:	NIST46.4
		#      Delta H source:	NIST46.4
		#T and ionic strength:	 0.10 25.0
7MoO4-2 + 9H+ = HMo7O24-5 + 4H2O
	log_k	59.3768
	delta_h	-218	kJ
	-gamma	0	0
		#                  Id:	3304804
		#        log K source:	NIST46.4
		#      Delta H source:	NIST46.4
		#T and ionic strength:	 0.10 25.0
7MoO4-2 + 10H+ = H2Mo7O24-4 + 4H2O
	log_k	64.159
	delta_h	-215	kJ
	-gamma	0	0
		#                  Id:	3304805
		#        log K source:	NIST46.4
		#      Delta H source:	NIST46.4
		#T and ionic strength:	 0.10 25.0
7MoO4-2 + 11H+ = H3Mo7O24-3 + 4H2O
	log_k	67.405
	delta_h	-217	kJ
	-gamma	0	0
		#                  Id:	3304806
		#        log K source:	NIST46.4
		#      Delta H source:	NIST46.4
		#T and ionic strength:	 1.00 25.0
6MoO4-2 + Al+3 + 6H+ = AlMo6O21-3 + 3H2O
	log_k	54.9925
	delta_h	0	kJ
	-gamma	0	0
		#                  Id:	304801
		#        log K source:	NIST46.4
		#      Delta H source:	MTQ3.11
		#T and ionic strength:	 0.50 25.0
MoO4-2 + 2Ag+ = Ag2MoO4
	log_k	-0.4219
	delta_h	-1.18	kJ
	-gamma	0	0
		#                  Id:	204801
		#        log K source:	Bard85
		#      Delta H source:	Bard85
		#T and ionic strength:
Ni+2 + H2O = NiOH+ + H+
	log_k	-9.897
	delta_h	51.81	kJ
	-gamma	0	0
		#                  Id:	5403300
		#        log K source:	NIST46.3
		#      Delta H source:	NIST46.3
		#T and ionic strength:	 0.00 25.0
Ni+2 + 2H2O = Ni(OH)2 + 2H+
	log_k	-18.994
	delta_h	0	kJ
	-gamma	0	0
		#                  Id:	5403301
		#        log K source:	NIST46.3
		#      Delta H source:	MTQ3.11
		#T and ionic strength:	 0.00 25.0
Ni+2 + 3H2O = Ni(OH)3- + 3H+
	log_k	-29.991
	delta_h	0	kJ
	-gamma	0	0
		#                  Id:	5403302
		#        log K source:	NIST46.3
		#      Delta H source:	MTQ3.11
		#T and ionic strength:	 0.00 25.0
HSeO3- + 6e- + 6H+ = HSe- + 3H2O
	log_k	44.86
	delta_h	0	kJ
	-gamma	0	0
		#                  Id:	7607610
		#        log K source:	Bard85
		#      Delta H source:	MTQ3.11
		#T and ionic strength:
SeO4-2 + 2e- + 3H+ = HSeO3- + H2O
	log_k	36.308
	delta_h	-201.2	kJ
	-gamma	0	0
		#                  Id:	7617620
		#        log K source:	Bard85
		#      Delta H source:	MTQ3.11
		#T and ionic strength:
Tl(OH)3 + 3H+ = Tl+3 + 3H2O
	log_k	3.291
	delta_h	0	kJ
	-gamma	0	0
		#                  Id:	8713300
		#        log K source:	NIST46.3
		#      Delta H source:	MTQ3.11
		#T and ionic strength:	 0.00 25.0
Tl(OH)3 + 2e- + 3H+ = Tl+ + 3H2O
	log_k	45.55
	delta_h	0	kJ
	-gamma	0	0
		#                  Id:	8708710
		#        log K source:	Bard85
		#      Delta H source:	MTQ3.11
		#T and ionic strength:
UO2+2 + 3e- + 4H+ = U+3 + 2H2O
	log_k	0.42
	delta_h	-42	kJ
	-gamma	0	0
		#                  Id:	8908930
		#        log K source:	MTQ3.11
		#      Delta H source:	MTQ3.11
		#T and ionic strength:
UO2+2 + 2e- + 4H+ = U+4 + 2H2O
	log_k	9.216
	delta_h	-144.1	kJ
	-gamma	0	0
		#                  Id:	8918930
		#        log K source:	MTQ3.11
		#      Delta H source:	MTQ3.11
		#T and ionic strength:
UO2+2 + e- = UO2+
	log_k	2.785
	delta_h	-13.8	kJ
	-gamma	0	0
		#                  Id:	8928930
		#        log K source:	MTQ3.11
		#      Delta H source:	MTQ3.11
		#T and ionic strength:

# </from minteq.v4.dat>
PHASES

#<W2>
Arsenolite
        As4O6 + 6H2O = 4H3AsO3
        log_k   -2.801
        delta_h 14.33   kcal
Claudetite
        As4O6 + 6H2O = 4H3AsO3
        log_k   -3.065
        delta_h 13.29   kcal
#AsI3
#        AsI3 + 3H2O = H3AsO3 + 3I- + 3H+
#        log_k   4.155
#        delta_h 1.875   kcal
#Oripment
#        As2S3 + 6H2O = 2H3AsO3 + 3HS- + 3H+
#        log_k   -60.971
#        delta_h 82.89   kcal
#Realgar
#        AsS + 3H2O = H3AsO3 + HS- + 2H+ + e-
#        log_k   -19.747
#        delta_h 30.545  kcal
As2O5
        As2O5 + 3H2O = 2H3AsO4
        log_k   6.699
        delta_h -5.405  kcal
AlAsO4:2H2O
        AlAsO4:2H2O + 3H+ = Al+3 + H3AsO4 + 2H2O
        log_k   4.8
        delta_h -0      kcal
Ca3(AsO4)2:6H2O
        Ca3(AsO4)2:6H2O + 6H+ = 3Ca+2 + 2H3AsO4 + 6H2O
        log_k   22.3
        delta_h -0      kcal
Cu3(AsO4)2:6H2O
        Cu3(AsO4)2:6H2O + 6H+ = 3Cu+2 + 2H3AsO4 + 6H2O
        log_k   6.1
        delta_h -0      kcal
FeAsO4:2H2O
        FeAsO4:2H2O + 3H+ = Fe+3 + H3AsO4 + 2H2O
        log_k   0.4
        delta_h -0      kcal
Mn3(AsO4)2:8H2O
        Mn3(AsO4)2:8H2O + 6H+ = 3Mn+2 + 2H3AsO4 + 8H2O
        log_k   12.5
        delta_h -0      kcal
#Ni3(AsO4)2:8H2O
#        Ni3(AsO4)2:8H2O + 6H+ = 3Ni+2 + 2H3AsO4 + 8H2O
#        log_k   15.7
#        delta_h -0      kcal
Pb3(AsO4)2
        Pb3(AsO4)2 + 6H+ = 3Pb+2 + 2H3AsO4
        log_k   5.8
        delta_h -0      kcal
Zn3(AsO4)2:2.5H2O
        Zn3(AsO4)2:2.5H2O + 6H+ = 3Zn+2 + 2H3AsO4 + 2.5H2O
        log_k   13.65
        delta_h -0      kcal
Ba3(AsO4)2
        Ba3(AsO4)2 + 6H+ = 3Ba+2 + 2H3AsO4
        log_k   -8.91
        delta_h 2.64    kcal



Fe(OH)3(a)r
	Fe_tri(OH)3 + 3 H+ = Fe_tri+3 + 3 H2O
	log_k  4.891

Goethite_r
        Fe_triOOH + 3 H+ = Fe_tri+3 + 2 H2O
        log_k   -1.0

# may be implemented as kinetic reaction because of e-
#Sulfur_r
#	Schwefel + 2H+ + 2e- = SulfidH-
#	log_k	4.882
#	delta_h -9.5 kcal

Gypsum_r
	CaSulfat:2H2O = Ca+2 + Sulfat-2 + 2 H2O
	log_k	-4.58
	delta_h -0.109 kcal
	-analytic	68.2401	0.0	-3221.51	-25.0627

Anhydrite_r
	CaSulfat = Ca+2 + Sulfat-2
	log_k	-4.36
	delta_h -1.710 kcal
	-analytic	197.52	0.0	-8669.8	-69.835

Celestite_r
	SrSulfat = Sr+2 + Sulfat-2
	log_k	-6.63
	delta_h -1.037 kcal
	-analytic	-14805.9622	-2.4660924	756968.533	5436.3588	-40553604.0

Barite_r
	BaSulfat = Ba+2 + Sulfat-2
	log_k	-9.97
	delta_h  6.35 kcal
	-analytic	136.035	0.0	-7680.41	-48.595

Melanterite_r
	FeSulfat:7H2O = 7 H2O + Fe+2 + Sulfat-2
	log_k	-2.209
	delta_h 4.910	kcal
	-analytic	1.447	-0.004153	0.0	0.0	-214949.0

Alunite_r
	KAl3(Sulfat)2(OH)6 + 6 H+ = K+ + 3 Al+3 + 2 Sulfat-2 + 6H2O
	log_k	-1.4
	delta_h -50.250 kcal

Jarosite-K_r
	KFe3(Sulfat)2(OH)6 + 6 H+ = 3 Fe+3 + 6 H2O + K+ + 2 Sulfat-2
	log_k	-9.21
	delta_h -31.280 kcal

CdSulfat	329
	CdSulfat = Cd+2 + Sulfat-2
	log_k	-0.1
	delta_h -14.74	kcal

Anglesite_r	384
	PbSulfat = Pb+2 + Sulfat-2
	log_k	-7.79
	delta_h 2.15	kcal

Pyrite_r
	Fe_diSulfid2 +2H+ +2e-= Fe_di+2 + 2 SulfidH-
	log_k	-18.479
	delta_h 11.300 kcal

#Pyrite
#	FeS2 + 2 H+ + 2 e- = Fe+2 + 2 HS-
#	log_k	-18.479
#	delta_h 11.300 kcal

FeS(ppt)_r
	Fe_diSulfid + H+ = Fe_di+2 + SulfidH-
	log_k	-3.915
#FeS(ppt)
#	FeS + H+ = Fe+2 + HS-
#	log_k	-3.915

Mackinawite_r
	FeSulfid + H+ = Fe+2 + SulfidH-
	log_k	-4.648

H2Sulfid(g)
	H2Sulfid = H2Sulfid
	log_k	-0.997
	delta_h -4.570	kcal

Sphalerite_r
	ZnSulfid + H+ = Zn+2 + SulfidH-
	log_k	-11.618
	delta_h 8.250	kcal

Rhodochrosite_r
	Mn_diCO3 = Mn_di+2 + CO3-2
	log_k	-11.13
	delta_h  -1.430 kcal

#Pyrolusite	# H2O added for surface calc's
#	MnO2:H2O + 4 H+ + 2 e- = Mn+2 + 3 H2O
#	log_k	41.38
#	delta_h -65.110 kcal

#Hausmannite
#	Mn3O4 + 8 H+ + 2 e- = 3 Mn+2 + 4 H2O
#	log_k	61.03
#	delta_h -100.640 kcal

#Manganite
#	MnOOH + 3 H+ + e- = Mn+2 + 2 H2O
#	log_k	25.34

Pyrochroite_r
	Mn_di(OH)2 + 2 H+ = Mn_di+2 + 2 H2O
	log_k	15.2

#</W2>

Calcite
	CaCO3 = CO3-2 + Ca+2
	log_k	-8.48
	delta_h -2.297 kcal
	-analytic	-171.9065	-0.077993	2839.319	71.595

Aragonite
	CaCO3 = CO3-2 + Ca+2
	log_k	-8.336
	delta_h -2.589 kcal
	-analytic	-171.9773	-0.077993	2903.293	71.595

Dolomite
	CaMg(CO3)2 = Ca+2 + Mg+2 + 2 CO3-2
	log_k	-17.09
	delta_h  -9.436 kcal

Siderite
	FeCO3 = Fe+2 + CO3-2
	log_k	-10.89
	delta_h  -2.480 kcal

Rhodochrosite
	MnCO3 = Mn+2 + CO3-2
	log_k	-11.13
	delta_h  -1.430 kcal

Strontianite
	SrCO3 = Sr+2 + CO3-2
	log_k	-9.271
	delta_h -0.400 kcal
	-analytic	155.0305	0.0	-7239.594	-56.58638

Witherite
	BaCO3 = Ba+2 + CO3-2
	log_k	-8.562
	delta_h  0.703 kcal
	-analytic	607.642	0.121098	-20011.25	-236.4948

#Gypsum
#	CaSO4:2H2O = Ca+2 + SO4-2 + 2 H2O
#	log_k	-4.58
#	delta_h -0.109 kcal
#	-analytic	68.2401	0.0	-3221.51	-25.0627

#Anhydrite
#	CaSO4 = Ca+2 + SO4-2
#	log_k	-4.36
#	delta_h -1.710 kcal
#	-analytic	197.52	0.0	-8669.8	-69.835

#Celestite
#	SrSO4 = Sr+2 + SO4-2
#	log_k	-6.63
#	delta_h -1.037 kcal
#	-analytic	-14805.9622	-2.4660924	756968.533	5436.3588	-40553604.0

#Barite
#	BaSO4 = Ba+2 + SO4-2
#	log_k	-9.97
#	delta_h  6.35 kcal
#	-analytic	136.035	0.0	-7680.41	-48.595

Hydroxyapatite
	Ca5(PO4)3OH + 4 H+ = H2O + 3 HPO4-2 + 5 Ca+2
	log_k	 -3.421
	delta_h -36.155 kcal

Fluorite
	CaF2 = Ca+2 + 2 F-
	log_k	-10.6
	delta_h   4.69 kcal
	-analytic	66.348	0.0	-4298.2	-25.271

SiO2(a)
	SiO2 + 2 H2O = H4SiO4
	log_k	-2.71
	delta_h  3.340 kcal
	-analytic	-0.26	0.0	-731.0

Chalcedony
	SiO2 + 2 H2O = H4SiO4
	log_k	-3.55
	delta_h  4.720 kcal
	-analytic	-0.09	0.0	-1032.0

Quartz
	SiO2 + 2 H2O = H4SiO4
	log_k	-3.98
	delta_h  5.990 kcal
	-analytic	0.41	0.0	-1309.0

Gibbsite
	Al(OH)3 + 3 H+ = Al+3 + 3 H2O
	log_k	  8.11
	delta_h -22.800 kcal

Al(OH)3(a)
	Al(OH)3 + 3 H+ = Al+3 + 3 H2O
	log_k	 10.8
	delta_h -26.500 kcal

Kaolinite
	Al2Si2O5(OH)4 + 6 H+ = H2O + 2 H4SiO4 + 2 Al+3
	log_k	  7.435
	delta_h -35.300 kcal

Albite
	NaAlSi3O8 + 8 H2O = Na+ + Al(OH)4- + 3 H4SiO4
	log_k	-18.002
	delta_h 25.896 kcal

Anorthite
	CaAl2Si2O8 + 8 H2O = Ca+2 + 2 Al(OH)4- + 2 H4SiO4
	log_k	-19.714
	delta_h 11.580 kcal

K-feldspar
	KAlSi3O8 + 8 H2O = K+ + Al(OH)4- + 3 H4SiO4
	log_k	-20.573
	delta_h 30.820	kcal

K-mica
	KAl3Si3O10(OH)2 + 10 H+ = K+ + 3 Al+3 + 3 H4SiO4
	log_k	12.703
	delta_h -59.376 kcal

Chlorite(14A)
	Mg5Al2Si3O10(OH)8 + 16H+ = 5Mg+2 + 2Al+3 + 3H4SiO4 + 6H2O
	log_k	68.38
	delta_h -151.494 kcal

Ca-Montmorillonite